
*** ChampSim Multicore Out-of-Order Simulator ***

Warmup Instructions: 50000000
Simulation Instructions: 50000000
Number of CPUs: 1
LLC sets: 2048
LLC ways: 16
Off-chip DRAM Size: 4096 MB Channels: 1 Width: 64-bit Data Rate: 6400 MT/s
CPU 0 runs tracer/traces/649.fotonik3d_s-7084B.champsimtrace.xz
.xz
CPU 0 Bimodal branch predictor
BTB has LRU replacement policy
ITLB has LRU replacement policy
DTLB has LRU replacement policy
STLB has LRU replacement policy
L1I has LRU replacement policy
L1D has LRU replacement policy
L2C has LRU replacement policy
Initialize DRRIP state for LLC
Heartbeat CPU 0 instructions: 10000001 cycles: 2917184 heartbeat IPC: 3.42796 cumulative IPC: 3.42796 (Simulation time: 0 hr 0 min 34 sec) 
Heartbeat CPU 0 instructions: 20000001 cycles: 5834089 heartbeat IPC: 3.42829 cumulative IPC: 3.42813 (Simulation time: 0 hr 1 min 12 sec) 
Heartbeat CPU 0 instructions: 30000001 cycles: 8754616 heartbeat IPC: 3.42404 cumulative IPC: 3.42676 (Simulation time: 0 hr 2 min 3 sec) 
Heartbeat CPU 0 instructions: 40000003 cycles: 11679559 heartbeat IPC: 3.41887 cumulative IPC: 3.42479 (Simulation time: 0 hr 3 min 3 sec) 
Heartbeat CPU 0 instructions: 50000002 cycles: 14611715 heartbeat IPC: 3.41046 cumulative IPC: 3.42191 (Simulation time: 0 hr 4 min 17 sec) 

Warmup complete CPU 0 instructions: 50000002 cycles: 14611715 (Simulation time: 0 hr 4 min 17 sec) 

Heartbeat CPU 0 instructions: 60000002 cycles: 32136464 heartbeat IPC: 0.570622 cumulative IPC: 0.570622 (Simulation time: 0 hr 6 min 8 sec) 
Heartbeat CPU 0 instructions: 70000002 cycles: 49470272 heartbeat IPC: 0.576907 cumulative IPC: 0.573747 (Simulation time: 0 hr 7 min 43 sec) 
Heartbeat CPU 0 instructions: 80000001 cycles: 66226339 heartbeat IPC: 0.596799 cumulative IPC: 0.581231 (Simulation time: 0 hr 9 min 14 sec) 
Heartbeat CPU 0 instructions: 90000003 cycles: 82896708 heartbeat IPC: 0.599867 cumulative IPC: 0.58578 (Simulation time: 0 hr 10 min 43 sec) 
Heartbeat CPU 0 instructions: 100000003 cycles: 99419739 heartbeat IPC: 0.605216 cumulative IPC: 0.589567 (Simulation time: 0 hr 12 min 6 sec) 
Finished CPU 0 instructions: 50000001 cycles: 84808024 cumulative IPC: 0.589567 (Simulation time: 0 hr 12 min 6 sec) 

ChampSim completed all CPUs

Region of Interest Statistics

CPU 0 cumulative IPC: 0.589567 instructions: 50000001 cycles: 84808024
ITLB TOTAL     ACCESS:    6276253  HIT:    6276253  MISS:          0  HIT %:        100  MISS %:          0   MPKI: 0
ITLB LOAD TRANSLATION ACCESS:    6276253  HIT:    6276253  MISS:          0  HIT %:        100  MISS %:          0   MPKI: 0
ITLB PREFETCH  REQUESTED:          0  ISSUED:          0  USEFUL:          0  USELESS:          0
ITLB USEFUL LOAD PREFETCHES:          0 PREFETCH ISSUED TO LOWER LEVEL:          0  ACCURACY: -nan
ITLB TIMELY PREFETCHES:          0 LATE PREFETCHES: 0 DROPPED PREFETCHES: 0
ITLB PREFETCHES SAME FILL-ORIGIN LEVEL: 0 DIFFERENT FILL-ORIGIN LEVEL: 0
ITLB AVERAGE MISS LATENCY: -nan cycles
ITLB RQ	ACCESS:    7529680	FORWARD:          0	MERGED:    1253427	TO_CACHE:    6276253

DTLB TOTAL     ACCESS:   10707763  HIT:   10648762  MISS:      59001  HIT %:     99.449  MISS %:   0.551011   MPKI: 1.18002
DTLB LOAD TRANSLATION ACCESS:   10707763  HIT:   10648762  MISS:      59001  HIT %:     99.449  MISS %:   0.551011   MPKI: 1.18002
DTLB PREFETCH  REQUESTED:          0  ISSUED:          0  USEFUL:          0  USELESS:          0
DTLB USEFUL LOAD PREFETCHES:          0 PREFETCH ISSUED TO LOWER LEVEL:          0  ACCURACY: -nan
DTLB TIMELY PREFETCHES:          0 LATE PREFETCHES: 0 DROPPED PREFETCHES: 0
DTLB PREFETCHES SAME FILL-ORIGIN LEVEL: 0 DIFFERENT FILL-ORIGIN LEVEL: 0
DTLB AVERAGE MISS LATENCY: 39.8567 cycles
DTLB RQ	ACCESS:   12565654	FORWARD:          0	MERGED:    1855571	TO_CACHE:   10710083

STLB TOTAL     ACCESS:      59001  HIT:      45350  MISS:      13651  HIT %:    76.8631  MISS %:    23.1369   MPKI: 0.27302
STLB LOAD TRANSLATION ACCESS:      59001  HIT:      45350  MISS:      13651  HIT %:    76.8631  MISS %:    23.1369   MPKI: 0.27302
STLB PREFETCH  REQUESTED:          0  ISSUED:          0  USEFUL:          0  USELESS:          0
STLB USEFUL LOAD PREFETCHES:          0 PREFETCH ISSUED TO LOWER LEVEL:          0  ACCURACY: -nan
STLB TIMELY PREFETCHES:          0 LATE PREFETCHES: 0 DROPPED PREFETCHES: 0
STLB PREFETCHES SAME FILL-ORIGIN LEVEL: 0 DIFFERENT FILL-ORIGIN LEVEL: 0
STLB AVERAGE MISS LATENCY: 130.568 cycles
STLB RQ	ACCESS:      59001	FORWARD:          0	MERGED:          0	TO_CACHE:      59001

STLB Hit, L1D data hit: 0
STLB Hit, L2C data hit: 0
STLB Hit, LLC data hit: 0
STLB Hit, LLC data miss: 0
STLB STLB hints to L2: 0
L1D TOTAL     ACCESS:   12471133  HIT:   11652403  MISS:     818730  HIT %:     93.435  MISS %:      6.565   MPKI: 16.3746
L1D LOAD      ACCESS:   10012539  HIT:    9193809  MISS:     818730  HIT %:     91.823  MISS %:    8.17705   MPKI: 16.3746
L1D RFO       ACCESS:    2458594  HIT:    2458594  MISS:          0  HIT %:        100  MISS %:          0   MPKI: 0
L1D PREFETCH  REQUESTED:          0  ISSUED:          0  USEFUL:          0  USELESS:          0
L1D USEFUL LOAD PREFETCHES:          0 PREFETCH ISSUED TO LOWER LEVEL:          0  ACCURACY: -nan
L1D TIMELY PREFETCHES:          0 LATE PREFETCHES: 0 DROPPED PREFETCHES: 0
L1D PREFETCHES SAME FILL-ORIGIN LEVEL: 0 DIFFERENT FILL-ORIGIN LEVEL: 0
L1D AVERAGE MISS LATENCY: 205.595 cycles
L1D RQ	ACCESS:   17094224	FORWARD:          0	MERGED:    6924072	TO_CACHE:   10107060
L1D WQ	ACCESS:    2458594	FORWARD:      63092	MERGED:          0	TO_CACHE:    2458594

L1D UNIQUE REGIONS ACCESSED: 0
L1D REGIONS CONFLICTS: 0
L1D Cross Page Prefetch Requests: 0
L1D Same Page Prefetch Requests: 0
L1D ROI Sum of L1D PQ occupancy: 0
L1D PREFETCHES PUSHED FROM L2C: 0
L1I TOTAL     ACCESS:    7529680  HIT:    7529680  MISS:          0  HIT %:        100  MISS %:          0   MPKI: 0
L1I LOAD      ACCESS:    7529680  HIT:    7529680  MISS:          0  HIT %:        100  MISS %:          0   MPKI: 0
L1I PREFETCH  REQUESTED:          0  ISSUED:          0  USEFUL:          0  USELESS:          0
L1I USEFUL LOAD PREFETCHES:          0 PREFETCH ISSUED TO LOWER LEVEL:          0  ACCURACY: -nan
L1I TIMELY PREFETCHES:          0 LATE PREFETCHES: 0 DROPPED PREFETCHES: 0
L1I PREFETCHES SAME FILL-ORIGIN LEVEL: 0 DIFFERENT FILL-ORIGIN LEVEL: 0
L1I AVERAGE MISS LATENCY: -nan cycles
L1I RQ	ACCESS:   11657158	FORWARD:          0	MERGED:    4127478	TO_CACHE:    7529680

BTB TOTAL     ACCESS:     336776  HIT:     336773  MISS:          3  HIT %:    99.9991  MISS %:  0.0008908   MPKI: 6e-05
BTB BRANCH_DIRECT_JUMP	ACCESS:          0  HIT:          0  MISS:          0
BTB BRANCH_INDIRECT	ACCESS:          0  HIT:          0  MISS:          0
BTB BRANCH_CONDITIONAL	ACCESS:     336776  HIT:     336773  MISS:          3
BTB BRANCH_DIRECT_CALL	ACCESS:          0  HIT:          0  MISS:          0
BTB BRANCH_INDIRECT_CALL	ACCESS:          0  HIT:          0  MISS:          0
BTB BRANCH_RETURN	ACCESS:          0  HIT:          0  MISS:          0
BTB BRANCH_OTHER ACCESS:          0  HIT:          0  MISS:          0

L2C TOTAL     ACCESS:    1092008  HIT:     271585  MISS:     820423  HIT %:    24.8702  MISS %:    75.1298   MPKI: 16.4085
L2C LOAD      ACCESS:     818730  HIT:         66  MISS:     818664  HIT %: 0.00806127  MISS %:    99.9919   MPKI: 16.3733
L2C DATA LOAD MPKI: 16.3733
L2C INSTRUCTION LOAD MPKI: 0
L2C WRITEBACK ACCESS:     259626  HIT:     259624  MISS:          2  HIT %:    99.9992  MISS %: 0.000770339   MPKI: 4e-05
L2C LOAD TRANSLATION ACCESS:      13652  HIT:      11895  MISS:       1757  HIT %:    87.1301  MISS %:    12.8699   MPKI: 0.03514
L2C PREFETCH  REQUESTED:          0  ISSUED:          0  USEFUL:          0  USELESS:          0
L2C USEFUL LOAD PREFETCHES:          0 PREFETCH ISSUED TO LOWER LEVEL:          0  ACCURACY: -nan
L2C TIMELY PREFETCHES:          0 LATE PREFETCHES: 0 DROPPED PREFETCHES: 0
L2C PREFETCHES SAME FILL-ORIGIN LEVEL: 0 DIFFERENT FILL-ORIGIN LEVEL: 0
L2C AVERAGE MISS LATENCY: 189.873 cycles
L2C RQ	ACCESS:     832383	FORWARD:          0	MERGED:          0	TO_CACHE:     832383
L2C WQ	ACCESS:     259626	FORWARD:          0	MERGED:          0	TO_CACHE:     259626

L2C Instructions Evicting Data 0
L2C Translations Evicting Data 1755
L2C Data Evicting Data 816908
L2C Instructions Evicting Instructions 0
L2C Translations Evicting Instructions 0
L2C Data Evicting Instructions 0
L2C Instructions Evicting Translations 0
L2C Translations Evicting Translations 2
L2C Data Evicting Translations 1756
L2C Dense regions hint from L2: 0
PSCL5 TOTAL     ACCESS:      13651  HIT:      13651  MISS:          0  HIT %:        100  MISS %:          0   MPKI: 0
PSCL5 LOAD TRANSLATION ACCESS:      13651  HIT:      13651  MISS:          0  HIT %:        100  MISS %:          0   MPKI: 0
PSCL5 PREFETCH  REQUESTED:          0  ISSUED:          0  USEFUL:          0  USELESS:          0
PSCL5 USEFUL LOAD PREFETCHES:          0 PREFETCH ISSUED TO LOWER LEVEL:          0  ACCURACY: -nan
PSCL5 TIMELY PREFETCHES:          0 LATE PREFETCHES: 0 DROPPED PREFETCHES: 0
PSCL5 PREFETCHES SAME FILL-ORIGIN LEVEL: 0 DIFFERENT FILL-ORIGIN LEVEL: 0

PSCL4 TOTAL     ACCESS:      13651  HIT:      13651  MISS:          0  HIT %:        100  MISS %:          0   MPKI: 0
PSCL4 LOAD TRANSLATION ACCESS:      13651  HIT:      13651  MISS:          0  HIT %:        100  MISS %:          0   MPKI: 0
PSCL4 PREFETCH  REQUESTED:          0  ISSUED:          0  USEFUL:          0  USELESS:          0
PSCL4 USEFUL LOAD PREFETCHES:          0 PREFETCH ISSUED TO LOWER LEVEL:          0  ACCURACY: -nan
PSCL4 TIMELY PREFETCHES:          0 LATE PREFETCHES: 0 DROPPED PREFETCHES: 0
PSCL4 PREFETCHES SAME FILL-ORIGIN LEVEL: 0 DIFFERENT FILL-ORIGIN LEVEL: 0

PSCL3 TOTAL     ACCESS:      13651  HIT:      13651  MISS:          0  HIT %:        100  MISS %:          0   MPKI: 0
PSCL3 LOAD TRANSLATION ACCESS:      13651  HIT:      13651  MISS:          0  HIT %:        100  MISS %:          0   MPKI: 0
PSCL3 PREFETCH  REQUESTED:          0  ISSUED:          0  USEFUL:          0  USELESS:          0
PSCL3 USEFUL LOAD PREFETCHES:          0 PREFETCH ISSUED TO LOWER LEVEL:          0  ACCURACY: -nan
PSCL3 TIMELY PREFETCHES:          0 LATE PREFETCHES: 0 DROPPED PREFETCHES: 0
PSCL3 PREFETCHES SAME FILL-ORIGIN LEVEL: 0 DIFFERENT FILL-ORIGIN LEVEL: 0

PSCL2 TOTAL     ACCESS:      13651  HIT:      13628  MISS:         23  HIT %:    99.8315  MISS %:   0.168486   MPKI: 0.00046
PSCL2 LOAD TRANSLATION ACCESS:      13651  HIT:      13628  MISS:         23  HIT %:    99.8315  MISS %:   0.168486   MPKI: 0.00046
PSCL2 PREFETCH  REQUESTED:          0  ISSUED:          0  USEFUL:          0  USELESS:          0
PSCL2 USEFUL LOAD PREFETCHES:          0 PREFETCH ISSUED TO LOWER LEVEL:          0  ACCURACY: -nan
PSCL2 TIMELY PREFETCHES:          0 LATE PREFETCHES: 0 DROPPED PREFETCHES: 0
PSCL2 PREFETCHES SAME FILL-ORIGIN LEVEL: 0 DIFFERENT FILL-ORIGIN LEVEL: 0

LLC TOTAL     ACCESS:    1079870  HIT:     255524  MISS:     824346  HIT %:    23.6625  MISS %:    76.3375   MPKI: 16.4869
LLC LOAD      ACCESS:     818664  HIT:         11  MISS:     818653  HIT %: 0.00134365  MISS %:    99.9987   MPKI: 16.3731
LLC WRITEBACK ACCESS:     259449  HIT:     255510  MISS:       3939  HIT %:    98.4818  MISS %:    1.51822   MPKI: 0.07878
LLC LOAD TRANSLATION ACCESS:       1757  HIT:          3  MISS:       1754  HIT %:   0.170746  MISS %:    99.8293   MPKI: 0.03508
LLC PREFETCH  REQUESTED:          0  ISSUED:          0  USEFUL:          0  USELESS:          0
LLC USEFUL LOAD PREFETCHES:          0 PREFETCH ISSUED TO LOWER LEVEL:          0  ACCURACY: -nan
LLC TIMELY PREFETCHES:          0 LATE PREFETCHES: 0 DROPPED PREFETCHES: 0
LLC PREFETCHES SAME FILL-ORIGIN LEVEL: 0 DIFFERENT FILL-ORIGIN LEVEL: 0
LLC AVERAGE MISS LATENCY: 158.884 cycles
LLC RQ	ACCESS:     820422	FORWARD:          0	MERGED:          0	TO_CACHE:     820422
LLC WQ	ACCESS:     259450	FORWARD:          0	MERGED:          0	TO_CACHE:     259450

LLC Dense regions hint to LLC: 0

RAW hits: 592180
Loads Generated: 17686403
Loads sent to L1D: 17094224
Stores Generated: 2458594
Stores sent to L1D: 2458594
Major fault: 0 Minor fault: 22513
Allocated PAGES: 22513
L1D AGUS
Peque 0 :: 0
Grande 0 :: 0
END AGUS

DRAM Statistics
 CHANNEL 0
 RQ ROW_BUFFER_HIT:     270776  ROW_BUFFER_MISS:     549632
 DBUS_CONGESTED:       1183
 WQ ROW_BUFFER_HIT:     201301  ROW_BUFFER_MISS:      58332  FULL:          0

 AVG_CONGESTED_CYCLE: 5
 All warmup complete: 2
Channel 0 Bank busy for read cycles: 0
Channel 0 Bank busy for write cycles: 0
Channel 0
Rank 0
0banks busy for read cycles: 3401793
0banks busy for write cycles: 35003
1banks busy for read cycles: 26274197
1banks busy for write cycles: 7601551
2banks busy for read cycles: 16761826
2banks busy for write cycles: 8792547
3banks busy for read cycles: 7755033
3banks busy for write cycles: 6452265
4banks busy for read cycles: 2397846
4banks busy for write cycles: 3230936
5banks busy for read cycles: 537260
5banks busy for write cycles: 1130723
6banks busy for read cycles: 89620
6banks busy for write cycles: 279131
7banks busy for read cycles: 14691
7banks busy for write cycles: 46785
8banks busy for read cycles: 1182
8banks busy for write cycles: 5636

CPU 0 Branch Prediction Accuracy: 99.186% MPKI: 0.0562 Average ROB Occupancy at Mispredict: 326.219
Branch types
NOT_BRANCH: 49654689 99.3094%
BRANCH_DIRECT_JUMP: 0 0%
BRANCH_INDIRECT: 0 0%
BRANCH_CONDITIONAL: 345200 0.6904%
BRANCH_DIRECT_CALL: 0 0%
BRANCH_INDIRECT_CALL: 0 0%
BRANCH_RETURN: 0 0%
BRANCH_OTHER: 0 0%

DRAM PAGES: 1048576
Allocated PAGES: 22513
