
*** ChampSim Multicore Out-of-Order Simulator ***

Warmup Instructions: 50000000
Simulation Instructions: 50000000
Number of CPUs: 1
LLC sets: 2048
LLC ways: 16
Off-chip DRAM Size: 4096 MB Channels: 1 Width: 64-bit Data Rate: 6400 MT/s
CPU 0 runs tracer/traces/649.fotonik3d_s-10881B.champsimtrace.xz
.xz
CPU 0 Bimodal branch predictor
BTB has LRU replacement policy
ITLB has LRU replacement policy
DTLB has LRU replacement policy
STLB has LRU replacement policy
L1I has LRU replacement policy
L1D has LRU replacement policy
L2C has LRU replacement policy
Initialize DRRIP state for LLC
Heartbeat CPU 0 instructions: 10000003 cycles: 5061193 heartbeat IPC: 1.97582 cumulative IPC: 1.97582 (Simulation time: 0 hr 1 min 15 sec) 
Heartbeat CPU 0 instructions: 20000000 cycles: 10130717 heartbeat IPC: 1.97257 cumulative IPC: 1.97419 (Simulation time: 0 hr 3 min 2 sec) 
Heartbeat CPU 0 instructions: 30000000 cycles: 15205489 heartbeat IPC: 1.97053 cumulative IPC: 1.97297 (Simulation time: 0 hr 4 min 42 sec) 
Heartbeat CPU 0 instructions: 40000002 cycles: 20275636 heartbeat IPC: 1.97233 cumulative IPC: 1.97281 (Simulation time: 0 hr 6 min 7 sec) 
Heartbeat CPU 0 instructions: 50000002 cycles: 25340057 heartbeat IPC: 1.97456 cumulative IPC: 1.97316 (Simulation time: 0 hr 7 min 29 sec) 

Warmup complete CPU 0 instructions: 50000002 cycles: 25340057 (Simulation time: 0 hr 7 min 29 sec) 

Heartbeat CPU 0 instructions: 60000000 cycles: 47426892 heartbeat IPC: 0.452758 cumulative IPC: 0.452758 (Simulation time: 0 hr 9 min 29 sec) 
Heartbeat CPU 0 instructions: 70000002 cycles: 69554350 heartbeat IPC: 0.451927 cumulative IPC: 0.452342 (Simulation time: 0 hr 11 min 14 sec) 
Heartbeat CPU 0 instructions: 80000003 cycles: 91649155 heartbeat IPC: 0.452595 cumulative IPC: 0.452427 (Simulation time: 0 hr 12 min 21 sec) 
Heartbeat CPU 0 instructions: 90000003 cycles: 113751697 heartbeat IPC: 0.452437 cumulative IPC: 0.452429 (Simulation time: 0 hr 13 min 20 sec) 
Heartbeat CPU 0 instructions: 100000003 cycles: 135882712 heartbeat IPC: 0.451855 cumulative IPC: 0.452314 (Simulation time: 0 hr 14 min 6 sec) 
Finished CPU 0 instructions: 50000001 cycles: 110542655 cumulative IPC: 0.452314 (Simulation time: 0 hr 14 min 6 sec) 

ChampSim completed all CPUs

Region of Interest Statistics

CPU 0 cumulative IPC: 0.452314 instructions: 50000001 cycles: 110542655
ITLB TOTAL     ACCESS:    6847135  HIT:    6847135  MISS:          0  HIT %:        100  MISS %:          0   MPKI: 0
ITLB LOAD TRANSLATION ACCESS:    6847135  HIT:    6847135  MISS:          0  HIT %:        100  MISS %:          0   MPKI: 0
ITLB PREFETCH  REQUESTED:          0  ISSUED:          0  USEFUL:          0  USELESS:          0
ITLB USEFUL LOAD PREFETCHES:          0 PREFETCH ISSUED TO LOWER LEVEL:          0  ACCURACY: -nan
ITLB TIMELY PREFETCHES:          0 LATE PREFETCHES: 0 DROPPED PREFETCHES: 0
ITLB PREFETCHES SAME FILL-ORIGIN LEVEL: 0 DIFFERENT FILL-ORIGIN LEVEL: 0
ITLB AVERAGE MISS LATENCY: -nan cycles
ITLB RQ	ACCESS:    7275227	FORWARD:          0	MERGED:     428091	TO_CACHE:    6847136

DTLB TOTAL     ACCESS:   22190943  HIT:   21927496  MISS:     263447  HIT %:    98.8128  MISS %:    1.18718   MPKI: 5.26894
DTLB LOAD TRANSLATION ACCESS:   22190943  HIT:   21927496  MISS:     263447  HIT %:    98.8128  MISS %:    1.18718   MPKI: 5.26894
DTLB PREFETCH  REQUESTED:          0  ISSUED:          0  USEFUL:          0  USELESS:          0
DTLB USEFUL LOAD PREFETCHES:          0 PREFETCH ISSUED TO LOWER LEVEL:          0  ACCURACY: -nan
DTLB TIMELY PREFETCHES:          0 LATE PREFETCHES: 0 DROPPED PREFETCHES: 0
DTLB PREFETCHES SAME FILL-ORIGIN LEVEL: 0 DIFFERENT FILL-ORIGIN LEVEL: 0
DTLB AVERAGE MISS LATENCY: 164.519 cycles
DTLB RQ	ACCESS:   24604446	FORWARD:          0	MERGED:    2402184	TO_CACHE:   22202262

STLB TOTAL     ACCESS:     263447  HIT:      93668  MISS:     169779  HIT %:    35.5548  MISS %:    64.4452   MPKI: 3.39558
STLB LOAD TRANSLATION ACCESS:     263447  HIT:      93668  MISS:     169779  HIT %:    35.5548  MISS %:    64.4452   MPKI: 3.39558
STLB PREFETCH  REQUESTED:          0  ISSUED:          0  USEFUL:          0  USELESS:          0
STLB USEFUL LOAD PREFETCHES:          0 PREFETCH ISSUED TO LOWER LEVEL:          0  ACCURACY: -nan
STLB TIMELY PREFETCHES:          0 LATE PREFETCHES: 0 DROPPED PREFETCHES: 0
STLB PREFETCHES SAME FILL-ORIGIN LEVEL: 0 DIFFERENT FILL-ORIGIN LEVEL: 0
STLB AVERAGE MISS LATENCY: 222.502 cycles
STLB RQ	ACCESS:     263447	FORWARD:          0	MERGED:          0	TO_CACHE:     263447

STLB Hit, L1D data hit: 0
STLB Hit, L2C data hit: 0
STLB Hit, LLC data hit: 0
STLB Hit, LLC data miss: 0
STLB STLB hints to L2: 0
L1D TOTAL     ACCESS:   24253154  HIT:   23291153  MISS:     962001  HIT %:    96.0335  MISS %:     3.9665   MPKI: 19.24
L1D LOAD      ACCESS:   21047507  HIT:   20085506  MISS:     962001  HIT %:    95.4294  MISS %:    4.57062   MPKI: 19.24
L1D RFO       ACCESS:    3205647  HIT:    3205647  MISS:          0  HIT %:        100  MISS %:          0   MPKI: 0
L1D PREFETCH  REQUESTED:          0  ISSUED:          0  USEFUL:          0  USELESS:          0
L1D USEFUL LOAD PREFETCHES:          0 PREFETCH ISSUED TO LOWER LEVEL:          0  ACCURACY: -nan
L1D TIMELY PREFETCHES:          0 LATE PREFETCHES: 0 DROPPED PREFETCHES: 0
L1D PREFETCHES SAME FILL-ORIGIN LEVEL: 0 DIFFERENT FILL-ORIGIN LEVEL: 0
L1D AVERAGE MISS LATENCY: 210.038 cycles
L1D RQ	ACCESS:   31927633	FORWARD:          0	MERGED:   10520515	TO_CACHE:   21398798
L1D WQ	ACCESS:    3205648	FORWARD:       8320	MERGED:          0	TO_CACHE:    3205648

L1D UNIQUE REGIONS ACCESSED: 0
L1D REGIONS CONFLICTS: 0
L1D Cross Page Prefetch Requests: 0
L1D Same Page Prefetch Requests: 0
L1D ROI Sum of L1D PQ occupancy: 0
L1D PREFETCHES PUSHED FROM L2C: 0
L1I TOTAL     ACCESS:    7275225  HIT:    7275225  MISS:          0  HIT %:        100  MISS %:          0   MPKI: 0
L1I LOAD      ACCESS:    7275225  HIT:    7275225  MISS:          0  HIT %:        100  MISS %:          0   MPKI: 0
L1I PREFETCH  REQUESTED:          0  ISSUED:          0  USEFUL:          0  USELESS:          0
L1I USEFUL LOAD PREFETCHES:          0 PREFETCH ISSUED TO LOWER LEVEL:          0  ACCURACY: -nan
L1I TIMELY PREFETCHES:          0 LATE PREFETCHES: 0 DROPPED PREFETCHES: 0
L1I PREFETCHES SAME FILL-ORIGIN LEVEL: 0 DIFFERENT FILL-ORIGIN LEVEL: 0
L1I AVERAGE MISS LATENCY: -nan cycles
L1I RQ	ACCESS:   16127513	FORWARD:          0	MERGED:    8852286	TO_CACHE:    7275227

BTB TOTAL     ACCESS:     560941  HIT:     560936  MISS:          5  HIT %:    99.9991  MISS %: 0.000891359   MPKI: 0.0001
BTB BRANCH_DIRECT_JUMP	ACCESS:      40061  HIT:      40060  MISS:          1
BTB BRANCH_INDIRECT	ACCESS:          0  HIT:          0  MISS:          0
BTB BRANCH_CONDITIONAL	ACCESS:     520880  HIT:     520876  MISS:          4
BTB BRANCH_DIRECT_CALL	ACCESS:          0  HIT:          0  MISS:          0
BTB BRANCH_INDIRECT_CALL	ACCESS:          0  HIT:          0  MISS:          0
BTB BRANCH_RETURN	ACCESS:          0  HIT:          0  MISS:          0
BTB BRANCH_OTHER ACCESS:          0  HIT:          0  MISS:          0

L2C TOTAL     ACCESS:    1617567  HIT:     633939  MISS:     983628  HIT %:    39.1909  MISS %:    60.8091   MPKI: 19.6726
L2C LOAD      ACCESS:     962001  HIT:          5  MISS:     961996  HIT %: 0.00051975  MISS %:    99.9995   MPKI: 19.2399
L2C DATA LOAD MPKI: 19.2399
L2C INSTRUCTION LOAD MPKI: 0
L2C WRITEBACK ACCESS:     485740  HIT:     485740  MISS:          0  HIT %:        100  MISS %:          0   MPKI: 0
L2C LOAD TRANSLATION ACCESS:     169826  HIT:     148194  MISS:      21632  HIT %:    87.2623  MISS %:    12.7377   MPKI: 0.43264
L2C PREFETCH  REQUESTED:          0  ISSUED:          0  USEFUL:          0  USELESS:          0
L2C USEFUL LOAD PREFETCHES:          0 PREFETCH ISSUED TO LOWER LEVEL:          0  ACCURACY: -nan
L2C TIMELY PREFETCHES:          0 LATE PREFETCHES: 0 DROPPED PREFETCHES: 0
L2C PREFETCHES SAME FILL-ORIGIN LEVEL: 0 DIFFERENT FILL-ORIGIN LEVEL: 0
L2C AVERAGE MISS LATENCY: 185.507 cycles
L2C RQ	ACCESS:    1131826	FORWARD:          0	MERGED:          0	TO_CACHE:    1131826
L2C WQ	ACCESS:     485740	FORWARD:          0	MERGED:          0	TO_CACHE:     485740

L2C Instructions Evicting Data 0
L2C Translations Evicting Data 21520
L2C Data Evicting Data 940486
L2C Instructions Evicting Instructions 0
L2C Translations Evicting Instructions 0
L2C Data Evicting Instructions 0
L2C Instructions Evicting Translations 0
L2C Translations Evicting Translations 112
L2C Data Evicting Translations 21510
L2C Dense regions hint from L2: 0
PSCL5 TOTAL     ACCESS:     169779  HIT:     169779  MISS:          0  HIT %:        100  MISS %:          0   MPKI: 0
PSCL5 LOAD TRANSLATION ACCESS:     169779  HIT:     169779  MISS:          0  HIT %:        100  MISS %:          0   MPKI: 0
PSCL5 PREFETCH  REQUESTED:          0  ISSUED:          0  USEFUL:          0  USELESS:          0
PSCL5 USEFUL LOAD PREFETCHES:          0 PREFETCH ISSUED TO LOWER LEVEL:          0  ACCURACY: -nan
PSCL5 TIMELY PREFETCHES:          0 LATE PREFETCHES: 0 DROPPED PREFETCHES: 0
PSCL5 PREFETCHES SAME FILL-ORIGIN LEVEL: 0 DIFFERENT FILL-ORIGIN LEVEL: 0

PSCL4 TOTAL     ACCESS:     169779  HIT:     169779  MISS:          0  HIT %:        100  MISS %:          0   MPKI: 0
PSCL4 LOAD TRANSLATION ACCESS:     169779  HIT:     169779  MISS:          0  HIT %:        100  MISS %:          0   MPKI: 0
PSCL4 PREFETCH  REQUESTED:          0  ISSUED:          0  USEFUL:          0  USELESS:          0
PSCL4 USEFUL LOAD PREFETCHES:          0 PREFETCH ISSUED TO LOWER LEVEL:          0  ACCURACY: -nan
PSCL4 TIMELY PREFETCHES:          0 LATE PREFETCHES: 0 DROPPED PREFETCHES: 0
PSCL4 PREFETCHES SAME FILL-ORIGIN LEVEL: 0 DIFFERENT FILL-ORIGIN LEVEL: 0

PSCL3 TOTAL     ACCESS:     169779  HIT:     169779  MISS:          0  HIT %:        100  MISS %:          0   MPKI: 0
PSCL3 LOAD TRANSLATION ACCESS:     169779  HIT:     169779  MISS:          0  HIT %:        100  MISS %:          0   MPKI: 0
PSCL3 PREFETCH  REQUESTED:          0  ISSUED:          0  USEFUL:          0  USELESS:          0
PSCL3 USEFUL LOAD PREFETCHES:          0 PREFETCH ISSUED TO LOWER LEVEL:          0  ACCURACY: -nan
PSCL3 TIMELY PREFETCHES:          0 LATE PREFETCHES: 0 DROPPED PREFETCHES: 0
PSCL3 PREFETCHES SAME FILL-ORIGIN LEVEL: 0 DIFFERENT FILL-ORIGIN LEVEL: 0

PSCL2 TOTAL     ACCESS:     169779  HIT:     169484  MISS:        295  HIT %:    99.8262  MISS %:   0.173755   MPKI: 0.0059
PSCL2 LOAD TRANSLATION ACCESS:     169779  HIT:     169484  MISS:        295  HIT %:    99.8262  MISS %:   0.173755   MPKI: 0.0059
PSCL2 PREFETCH  REQUESTED:          0  ISSUED:          0  USEFUL:          0  USELESS:          0
PSCL2 USEFUL LOAD PREFETCHES:          0 PREFETCH ISSUED TO LOWER LEVEL:          0  ACCURACY: -nan
PSCL2 TIMELY PREFETCHES:          0 LATE PREFETCHES: 0 DROPPED PREFETCHES: 0
PSCL2 PREFETCHES SAME FILL-ORIGIN LEVEL: 0 DIFFERENT FILL-ORIGIN LEVEL: 0

LLC TOTAL     ACCESS:    1469350  HIT:     592795  MISS:     876555  HIT %:     40.344  MISS %:     59.656   MPKI: 17.5311
LLC LOAD      ACCESS:     961996  HIT:     112271  MISS:     849725  HIT %:    11.6706  MISS %:    88.3294   MPKI: 16.9945
LLC WRITEBACK ACCESS:     485722  HIT:     477430  MISS:       8292  HIT %:    98.2929  MISS %:    1.70715   MPKI: 0.16584
LLC LOAD TRANSLATION ACCESS:      21632  HIT:       3094  MISS:      18538  HIT %:    14.3029  MISS %:    85.6971   MPKI: 0.37076
LLC PREFETCH  REQUESTED:          0  ISSUED:          0  USEFUL:          0  USELESS:          0
LLC USEFUL LOAD PREFETCHES:          0 PREFETCH ISSUED TO LOWER LEVEL:          0  ACCURACY: -nan
LLC TIMELY PREFETCHES:          0 LATE PREFETCHES: 0 DROPPED PREFETCHES: 0
LLC PREFETCHES SAME FILL-ORIGIN LEVEL: 0 DIFFERENT FILL-ORIGIN LEVEL: 0
LLC AVERAGE MISS LATENCY: 168.81 cycles
LLC RQ	ACCESS:     983627	FORWARD:          0	MERGED:          0	TO_CACHE:     983627
LLC WQ	ACCESS:     485722	FORWARD:          0	MERGED:          0	TO_CACHE:     485722

LLC Dense regions hint to LLC: 0

RAW hits: 82712
Loads Generated: 32010345
Loads sent to L1D: 31927633
Stores Generated: 3205648
Stores sent to L1D: 3205648
Major fault: 0 Minor fault: 257109
Allocated PAGES: 257109
L1D AGUS
Peque 0 :: 0
Grande 0 :: 0
END AGUS

DRAM Statistics
 CHANNEL 0
 RQ ROW_BUFFER_HIT:     270992  ROW_BUFFER_MISS:     597271
 DBUS_CONGESTED:        792
 WQ ROW_BUFFER_HIT:     139091  ROW_BUFFER_MISS:     346444  FULL:          0

 AVG_CONGESTED_CYCLE: 4
 All warmup complete: 2
Channel 0 Bank busy for read cycles: 0
Channel 0 Bank busy for write cycles: 0
Channel 0
Rank 0
0banks busy for read cycles: 7171815
0banks busy for write cycles: 86661
1banks busy for read cycles: 36328948
1banks busy for write cycles: 12468758
2banks busy for read cycles: 17314185
2banks busy for write cycles: 12081978
3banks busy for read cycles: 6522211
3banks busy for write cycles: 8552340
4banks busy for read cycles: 2207416
4banks busy for write cycles: 4618921
5banks busy for read cycles: 612446
5banks busy for write cycles: 1878568
6banks busy for read cycles: 108960
6banks busy for write cycles: 503099
7banks busy for read cycles: 10647
7banks busy for write cycles: 71083
8banks busy for read cycles: 293
8banks busy for write cycles: 4327

CPU 0 Branch Prediction Accuracy: 93.3275% MPKI: 0.80204 Average ROB Occupancy at Mispredict: 344.649
Branch types
NOT_BRANCH: 49398998 98.798%
BRANCH_DIRECT_JUMP: 40061 0.080122%
BRANCH_INDIRECT: 0 0%
BRANCH_CONDITIONAL: 560941 1.12188%
BRANCH_DIRECT_CALL: 0 0%
BRANCH_INDIRECT_CALL: 0 0%
BRANCH_RETURN: 0 0%
BRANCH_OTHER: 0 0%

DRAM PAGES: 1048576
Allocated PAGES: 257109
